LAMMPS (29 Sep 2021 - Update 3)
plugin load libdeepmd_lmp.so
Loading plugin: deepmd pair style v2.0 by Han Wang
Loading plugin: compute deeptensor/atom v2.0 by Han Wang
Loading plugin: fix dplr v2.0 by Han Wang
units		metal
dimension	3
boundary	p p p

atom_style	atomic
neighbor	2.0 bin
timestep        0.0014

read_data       Au100_layers_test.data
Reading data file ...
  orthogonal box = (0.0000000 0.0000000 -100.00000) to (14.778532 14.778532 133.44000)
  reading atoms ...
  304 atoms
region upper block INF INF INF INF 21 INF units box
region low block INF INF INF INF INF 9 units box
group upper region upper
125 atoms in group upper
group low region low
125 atoms in group low
group boundary union upper low
250 atoms in group boundary
group mobile subtract all boundary
54 atoms in group mobile

# LJ potentials

pair_style	deepmd Au-Ag-6-0__12-16-21.pb
pair_coeff     * *

# initial velocities
velocity mobile  create 150 37797
fix 1 boundary setforce 0.0 0.0 0.0
velocity upper set 0 0 0 units box
velocity low set 0 0 0 units box

fix 2 boundary nve/noforce
fix 3 mobile nvt temp 150 150 0.01
dump 1 all atom 100 relax.atom
thermo          1000
run 50000

CITE-CITE-CITE-CITE-CITE-CITE-CITE-CITE-CITE-CITE-CITE-CITE-CITE

Your simulation uses code contributions which should be cited:

- USER-DEEPMD package:

@article{Wang_ComputPhysCommun_2018_v228_p178,
  author = {Wang, Han and Zhang, Linfeng and Han, Jiequn and E, Weinan},
  doi = {10.1016/j.cpc.2018.03.016},
  url = {https://doi.org/10.1016/j.cpc.2018.03.016},
  year = 2018,
  month = {jul},
  publisher = {Elsevier {BV}},
  volume = 228,
  journal = {Comput. Phys. Commun.},
  title = {{DeePMD-kit: A deep learning package for many-body potential energy representation and molecular dynamics}},
  pages = {178--184}
}

CITE-CITE-CITE-CITE-CITE-CITE-CITE-CITE-CITE-CITE-CITE-CITE-CITE

  update every 1 steps, delay 10 steps, check yes
Step Temp E_pair E_mol TotEng Press
0    26.237624   -916.00094            0   -914.97332   -5218.3502
Averages over the last 26 of 51 rows, steps 25000 to 50000:
Temp E_pair E_mol TotEng Press
25.7984 -921.531 0 -920.521 -3484.14
Loop time of 593.958 on 1 procs for 50000 steps with 304 atoms

unfix 2
unfix 3
undump 1
reset_timestep 0

fix 4 boundary nve/noforce
fix 3 mobile nvt temp 150 150 0.01

velocity upper set 0 0 0.02 units box
velocity low set 0 0 -0.02 units box

dump 1 all atom 2000 dump.atom
# run

thermo		1000
run		600000
Step Temp E_pair E_mol TotEng Press
0    25.165798   -921.58635            0   -920.60071   -3268.3503
Averages over the last 301 of 601 rows, steps 300000 to 600000:
Temp E_pair E_mol TotEng Press
26.4115 -913.679 0 -912.645 -3593.12
Loop time of 7116.95 on 1 procs for 600000 steps with 304 atoms

Unloading pair style deepmd
Unloading compute style deepmd
Unloading fix style deepmd
